examples/feeders/CER3_2_34/CER3_2_34_Losses.Txt

LOSSES REPORT

Power Delivery Element Loss Report

Element                  kW Losses    % of Power   kvar Losses

"Line.IT_20_2411_0"        0.00000,      0.0     -1.2907E-007
"Line.IT_20_2411_36001"    0.00000,      0.0     -3.13324E-006
"Line.IT_20_2411_36002"    0.00000,      0.0     -8.73687E-006
"Line.IT_20_2411_36003"    0.00000,      0.0     -1.06277E-005
"Line.IT_20_4805_0"        0.00000,      0.0     -4.01912E-008
"Line.IT_32_10126_0"       0.00000,      0.0     -1.27664E-007
"Line.IT_32_10236_0"       0.00000,      0.0     -1.26283E-007
"Line.IT_32_10236_63878"   0.00000,      0.0     -4.60902E-006
"Line.IT_32_10236_63879"   0.00000,      0.0     -3.53569E-006
"Line.IT_32_10236_63880"   0.00000,      0.0     -3.85138E-006
"Line.IT_32_10236_63882"   0.00000,      0.0     -4.35647E-006
"Line.IT_32_10514_0"       0.00000,      0.0     -1.72492E-007
"Line.IT_32_1086_0"        0.00000,      0.0     1.06115E-006
"Line.IT_32_1086_14698"    0.00062,      0.0     0.000324977
"Line.IT_32_1086_14699"    0.00006,      0.0     1.75857E-005
"Line.IT_32_1086_14700"    0.00000,      0.0     -9.766E-007
"Line.IT_32_1086_36142"    0.00002,      0.0     8.0018E-006
"Line.IT_32_1086_36143"    0.00003,      0.0     9.97134E-007
"Line.IT_32_1086_55251"    0.00000,      0.0     -7.59601E-006
"Line.IT_32_1086_55252"    0.00000,      0.0     -2.20066E-006
"Line.IT_32_1101_0"        0.00000,      0.0     -4.52799E-008
"Line.IT_32_1101_13235"    0.00103,     0.12     0.000445707
"Line.IT_32_1101_13236"    0.00003,      0.0     1.07555E-005
"Line.IT_32_1101_13237"    0.00000,      0.0     -5.62658E-006
"Line.IT_32_1124_0"        0.00006,      0.0     6.68638E-006
"Line.IT_32_1124_13310"    0.00020,      0.0     0.000118792
"Line.IT_32_1124_67494"    0.00004,      0.0     3.58831E-006
"Line.IT_32_1124_67495"    0.00339,     0.16     0.00228396
"Line.IT_32_1124_67496"    0.00014,      0.0     8.17427E-005
"Line.IT_32_1124_67497"    0.00015,      0.0     8.79198E-005
"Line.IT_32_1124_67504"    0.00015,      0.0     9.25553E-005
"Line.IT_32_1124_67512"    0.00034,      0.0     0.00022387
"Line.IT_32_1124_67514"    0.00000,      0.0     -3.5607E-006
"Line.IT_32_1125_0"        0.00000,      0.0     -1.26042E-007
"Line.IT_32_1125_67498"    0.00004,      0.0     2.18321E-005
"Line.IT_32_1125_67499"    0.00009,      0.0     5.66154E-005
"Line.IT_32_1125_67511"    0.00000,      0.0     -1.6232E-006
"Line.IT_32_1126_0"        0.00000,      0.0     2.19613E-006
"Line.IT_32_1126_12561"    0.00000,      0.0     -5.48822E-006
"Line.IT_32_1126_12562"    0.00087,      0.0     0.00044125
"Line.IT_32_1126_12563"    0.00000,      0.0     -8.60316E-006
"Line.IT_32_1126_13317"    0.00081,      0.0     0.000413368
"Line.IT_32_1126_13318"    0.00204,     0.14     0.000902695
"Line.IT_32_1126_13374"    0.00041,      0.0     0.000209461
"Line.IT_32_1126_13375"    0.00002,      0.0     -3.90862E-006
"Line.IT_32_1126_13376"    0.00271,     0.20     0.0011895
"Line.IT_32_1126_13705"    0.00014,      0.0     6.41764E-005
"Line.IT_32_1126_13706"    0.00045,      0.0     0.000227297
"Line.IT_32_1127_0"        0.00000,      0.0     -3.16776E-008
"Line.IT_32_1127_54388"    0.00002,      0.0     -6.65518E-007
"Line.IT_32_1127_56505"    0.00002,      0.0     -7.28513E-007
"Line.IT_32_1127_56506"    0.00004,      0.0     -1.29765E-006
"Line.IT_32_1128_0"        0.00000,      0.0     -1.3917E-007
"Line.IT_32_1128_37957"    0.00085,      0.0     0.000369589
"Line.IT_32_1128_51510"    0.00000,      0.0     -9.40133E-006
"Line.IT_32_1128_51516"    0.00097,     0.10     0.000421348
"Line.IT_32_1128_51517"    0.00090,     0.09     0.000391804
"Line.IT_32_1128_51518"    0.00048,      0.0     0.000206985
"Line.IT_32_1128_55604"    0.00000,      0.0     -6.77492E-006
"Line.IT_32_1129_0"        0.00000,      0.0     -1.57806E-007
"Line.IT_32_1129_12853"    0.00000,      0.0     -3.9681E-006
"Line.IT_32_1129_12854"    0.00000,      0.0     -8.41824E-006
"Line.IT_32_1129_12855"    0.00000,      0.0     -8.72436E-006
"Line.IT_32_1129_12856"    0.00001,      0.0     -5.01135E-006
"Line.IT_32_1129_12857"    0.00000,      0.0     -7.04071E-006
"Line.IT_32_1129_13242"    0.00001,      0.0     -5.11463E-006
"Line.IT_32_1129_13244"    0.00001,      0.0     -7.09598E-006
"Line.IT_32_1129_27885"    0.00000,      0.0     -1.22447E-005
"Line.IT_32_1130_0"        0.00000,      0.0     -1.2929E-007
"Line.IT_32_1130_13245"    0.00000,      0.0     -9.29224E-006
"Line.IT_32_1130_13246"    0.00000,      0.0     -8.14662E-006
"Line.IT_32_1130_13247"    0.00000,      0.0     -6.74642E-006
"Line.IT_32_1130_13248"    0.00000,      0.0     -5.85539E-006
"Line.IT_32_1130_41212"    0.00000,      0.0     -1.42566E-005
"Line.IT_32_1130_41213"    0.00000,      0.0     -3.39867E-005
"Line.IT_32_1130_41751"    0.00000,      0.0     -7.89204E-006
"Line.IT_32_1130_41752"    0.00000,      0.0     -5.98267E-006
"Line.IT_32_1131_0"        0.00000,      0.0     3.27178E-007
"Line.IT_32_1131_13251"    0.00045,      0.0     0.000206132
"Line.IT_32_1131_13252"    0.00033,      0.0     0.000161876
"Line.IT_32_1131_28484"    0.00000,      0.0     -8.24269E-006
"Line.IT_32_1131_29537"    0.00000,      0.0     -8.94122E-006
"Line.IT_32_1131_8264"     0.00059,      0.0     0.000271905
"Line.IT_32_1132_0"        0.00000,      0.0     3.12441E-007
"Line.IT_32_1132_13254"    0.00048,      0.0     0.000205613
"Line.IT_32_1132_13255"    0.00000,      0.0     -9.69177E-006
"Line.IT_32_1132_13256"    0.00000,      0.0     -1.39713E-005
"Line.IT_32_1137_0"        0.00000,      0.0     -8.25135E-008
"Line.IT_32_1137_13257"    0.00000,      0.0     -7.4448E-006
"Line.IT_32_1137_13258"    0.00013,      0.0     5.26422E-005
"Line.IT_32_1137_13262"    0.00022,      0.0     8.93785E-005
"Line.IT_32_1151_0"        0.00000,      0.0     1.45733E-007
"Line.IT_32_1151_13323"    0.00001,      0.0     -5.44448E-006
"Line.IT_32_1151_65649"    0.00019,      0.0     9.26357E-005
"Line.IT_32_1151_65668"    0.00011,      0.0     5.08446E-005
"Line.IT_32_1151_65669"    0.00009,      0.0     4.29327E-005
"Line.IT_32_1152_0"        0.00000,      0.0     -1.55347E-007
"Line.IT_32_1156_0"        0.00000,      0.0     -1.50197E-007
"Line.IT_32_1156_41482"    0.00073,      0.0     0.000483857
"Line.IT_32_1156_41483"    0.00015,      0.0     9.05143E-005
"Line.IT_32_1156_41533"    0.00000,      0.0     -4.58683E-006
"Line.IT_32_1430_0"        0.00000,      0.0     -1.50477E-007
"Line.IT_32_1430_13646"    0.00000,      0.0     -1.32979E-005
"Line.IT_32_1430_13647"    0.00000,      0.0     -1.51113E-005
"Line.IT_32_1430_13648"    0.00000,      0.0     -1.46579E-005
"Line.IT_32_1430_13649"    0.00000,      0.0     -4.024E-006
"Line.IT_32_1430_13650"    0.00000,      0.0     -1.2089E-005
"Line.IT_32_1430_13651"    0.00000,      0.0     -4.63139E-006
"Line.IT_32_1430_13652"    0.00000,      0.0     -8.00898E-006
"Line.IT_32_1430_13653"    0.00000,      0.0     -5.01101E-006
"Line.IT_32_1430_13654"    0.00000,      0.0     -1.13335E-005
"Line.IT_32_1430_13655"    0.00000,      0.0     -1.16357E-005
"Line.IT_32_1430_13656"    0.00000,      0.0     -1.37513E-005
"Line.IT_32_1435_0"        0.00033,      0.0     3.88382E-005
"Line.IT_32_1435_15359"    0.00020,      0.0     0.000129764
"Line.IT_32_1435_15360"    0.00092,     0.05     0.000631245
"Line.IT_32_1435_15361"    0.00001,      0.0     2.11106E-007
"Line.IT_32_1435_15362"    0.00003,      0.0     1.63438E-005
"Line.IT_32_1435_15363"    0.00002,      0.0     1.24322E-005
"Line.IT_32_1435_15364"    0.00001,      0.0     4.23149E-007
"Line.IT_32_1435_15365"    0.00000,      0.0     -8.68274E-006
"Line.IT_32_1435_15421"    0.00161,     0.07     0.00109276
"Line.IT_32_1435_15422"    0.00349,     0.10     0.002354
"Line.IT_32_1435_15424"    0.00247,     0.08     0.00166716
"Line.IT_32_1435_15426"    0.00161,     0.07     0.00109164
"Line.IT_32_1435_15427"    0.00216,     0.12     0.00145832
"Line.IT_32_1435_53429"    0.00114,     0.05     0.000774295
"Line.IT_32_1435_53430"    0.00000,      0.0     -5.4682E-007
"Line.IT_32_1435_53431"    0.00001,      0.0     5.02112E-006
"Line.IT_32_1478_0"        0.00000,      0.0     -1.15624E-007
"Line.IT_32_1478_15428"    0.00009,      0.0     3.14238E-005
"Line.IT_32_1478_15429"    0.00000,      0.0     -2.90178E-006
"Line.IT_32_1478_15430"    0.00000,      0.0     -4.99107E-006
"Line.IT_32_1478_15431"    0.00014,      0.0     4.94555E-005
"Line.IT_32_1478_15432"    0.00000,      0.0     -9.16964E-006
"Line.IT_32_1478_15433"    0.00015,      0.0     5.0313E-005
"Line.IT_32_1478_15434"    0.00000,      0.0     -1.52053E-005
"Line.IT_32_1478_15435"    0.00000,      0.0     -6.15178E-006
"Line.IT_32_1478_15436"    0.00019,      0.0     6.66947E-005
"Line.IT_32_1663_0"        0.00000,      0.0     2.12663E-007
"Line.IT_32_1663_15287"    0.00000,      0.0     -9.23082E-006
"Line.IT_32_1663_15288"    0.00053,      0.0     0.000246598
"Line.IT_32_1663_15289"    0.00000,      0.0     -8.9468E-006
"Line.IT_32_1663_15293"    0.00000,      0.0     -2.2296E-005
"Line.IT_32_1663_51104"    0.00002,      0.0     5.09225E-006
"Line.IT_32_1663_51105"    0.00004,      0.0     8.78817E-006
"Line.IT_32_1663_51106"    0.00006,      0.0     1.2618E-005
"Line.IT_32_1664_0"        0.00000,      0.0     2.97236E-007
"Line.IT_32_1664_15296"    0.00000,      0.0     -5.21217E-006
"Line.IT_32_1664_26180"    0.00008,      0.0     4.79689E-005
"Line.IT_32_1664_45988"    0.00007,      0.0     4.37766E-005
"Line.IT_32_1664_8278"     0.00013,      0.0     7.61387E-005
"Line.IT_32_1715_0"        0.00000,      0.0     8.43137E-008
"Line.IT_32_1716_0"        0.00000,      0.0     1.91975E-006
"Line.IT_32_1716_15685"    0.00005,      0.0     2.4475E-005
"Line.IT_32_1716_15686"    0.00092,     0.06     0.000621114
"Line.IT_32_1716_15687"    0.00006,      0.0     2.52614E-005
"Line.IT_32_1716_15688"    0.00092,     0.06     0.000625008
"Line.IT_32_1716_15689"    0.00022,      0.0     0.000147854
"Line.IT_32_1716_15751"    0.00004,      0.0     1.62429E-005
"Line.IT_32_1716_15752"    0.00021,      0.0     0.000139409
"Line.IT_32_1716_15753"    0.00000,      0.0     -1.51476E-005
"Line.IT_32_1716_15754"    0.00000,      0.0     -6.91381E-006
"Line.IT_32_1716_15755"    0.00010,      0.0     6.40281E-005
"Line.IT_32_1716_15756"    0.00000,      0.0     -3.95973E-006
"Line.IT_32_1716_15757"    0.00000,      0.0     -4.77682E-006
"Line.IT_32_1744_0"        0.00000,      0.0     -1.28404E-007
"Line.IT_32_1744_67501"    0.00000,      0.0     -3.41457E-006
"Line.IT_32_1744_67502"    0.00000,      0.0     -6.82914E-006
"Line.IT_32_1744_67507"    0.00000,      0.0     -2.52931E-006
"Line.IT_32_1744_67508"    0.00000,      0.0     -6.32328E-006
"Line.IT_32_1744_67509"    0.00000,      0.0     -7.08207E-006
"Line.IT_32_1757_0"        0.00000,      0.0     5.92423E-007
"Line.IT_32_1757_15760"    0.00036,      0.0     0.000158273
"Line.IT_32_1757_15761"    0.00022,      0.0     5.17002E-005
"Line.IT_32_1757_15762"    0.00000,      0.0     -9.81296E-006
"Line.IT_32_1757_15763"    0.00007,      0.0     4.15772E-005
"Line.IT_32_1757_15764"    0.00003,      0.0     1.36077E-005
"Line.IT_32_1757_15765"    0.00040,      0.0     9.42895E-005
"Line.IT_32_1757_29897"    0.00007,      0.0     3.50585E-005
"Line.IT_32_1757_29902"    0.00027,      0.0     5.39074E-005
"Line.IT_32_1757_29903"    0.00021,      0.0     5.30018E-005
"Line.IT_32_1757_35927"    0.00032,      0.0     0.000138481
"Line.IT_32_1757_37834"    0.00042,      0.0     0.000182998
"Line.IT_32_1757_49893"    0.00000,      0.0     -2.6007E-006
"Line.IT_32_1760_0"        0.00000,      0.0     8.61775E-008
"Line.IT_32_1887_0"        0.00000,      0.0     3.66407E-009
"Line.IT_32_1887_15018"    0.00001,      0.0     -5.285E-007
"Line.IT_32_1887_15019"    0.00007,      0.0     3.4127E-005
"Line.IT_32_1887_15020"    0.00001,      0.0     -3.54284E-007
"Line.IT_32_1887_15079"    0.00000,      0.0     -7.95698E-006
"Line.IT_32_1887_39392"    0.00000,      0.0     -8.86894E-006
"Line.IT_32_1887_39737"    0.00000,      0.0     -7.99417E-006
"Line.IT_32_1887_39738"    0.00000,      0.0     -9.49261E-006
"Line.IT_32_1887_39739"    0.00000,      0.0     -8.61785E-006
"Line.IT_32_1903_0"        0.00001,      0.0     7.10612E-007
"Line.IT_32_1932_0"        0.00000,      0.0     5.75509E-009
"Line.IT_32_2029_0"        0.00000,      0.0     6.49248E-007
"Line.IT_32_2029_15196"    0.00007,      0.0     2.2806E-005
"Line.IT_32_2029_15198"    0.00004,      0.0     1.42781E-005
...
"Line.MT1"                 0.00170,     0.00     0.00323224
"Line.MT100354_1"          0.00000,      0.0     -0.0130082
"Line.MT100355_1"          0.00000,      0.0     -0.0173443
"Line.MT100356_1"          0.00000,      0.0     -0.0117468
"Line.MT100357_1"          0.00000,      0.0     -0.0114314
"Line.MT100377_1"          0.00000,      0.0     -0.000236512
"Line.MT100420_1"          0.00030,      0.0     -0.0046753
"Line.MT100721_1"          0.00037,      0.0     -0.00477917
"Line.MT100723_1"          0.00001,      0.0     -0.00620977
"Line.MT100772_1"          0.00001,      0.0     -0.0111254
"Line.MT100776_1"          0.00000,      0.0     -0.0032741
"Line.MT100777_1"          0.00000,      0.0     -0.00319424
"Line.MT100778_1"          0.00000,      0.0     -0.00830502
"Line.MT100779_1"          0.00000,      0.0     -0.0153323
"Line.MT100783_1"          0.00000,      0.0     -0.00990219
"Line.MT100784_1"          0.00000,      0.0     -0.00678778
"Line.MT100785_1"          0.00000,      0.0     -0.00479137
"Line.MT100786_1"          0.00000,      0.0     -0.00694748
"Line.MT100968_1"          0.00000,      0.0     -0.00365579
"Line.MT100970_1"          0.00000,      0.0     -0.0171663
"Line.MT100971_1"          0.00000,      0.0     -0.00675521
"Line.MT101301_1"          0.00010,      0.0     -0.0151129
"Line.MT101311_1"          0.01059,     0.01     -0.00680988
"Line.MT101312_1"          0.01546,     0.01     -0.00993891
"Line.MT101313_1"          0.02096,     0.01     -0.0134722
"Line.MT101314_1"          0.01969,     0.01     -0.0126487
"Line.MT101315_1"          0.00000,      0.0     -0.00825479
"Line.MT101331_1"          0.00000,      0.0     -0.0119786
"Line.MT101332_1"          0.00000,      0.0     -0.00548038
"Line.MT101359_1"          0.00000,      0.0     -0.00721091
"Line.MT101360_1"          0.00000,      0.0     -0.00182254
"Line.MT101361_1"          0.00000,      0.0     -0.000237723
"Line.MT101363_1"          0.00000,      0.0     -0.0129162
"Line.MT10147_1"           0.00002,      0.0     -0.0140919
"Line.MT101786_1"          0.00000,      0.0     -0.000697327
"Line.MT101801_1"          0.00000,      0.0     -0.00983789
"Line.MT101802_1"          0.00000,      0.0     -0.0220753
"Line.MT101803_1"          0.00000,      0.0     -0.0220753
"Line.MT101804_1"          0.00000,      0.0     -0.0218353
"Line.MT101805_1"          0.00000,      0.0     -0.0227951
"Line.MT101806_1"          0.00000,      0.0     -0.0268742
"Line.MT101807_1"          0.00000,      0.0     -0.0136771
"Line.MT101809_1"          0.00003,      0.0     -0.0119853
"Line.MT101816_1"          0.00000,      0.0     -0.000719852
"Line.MT101972_1"          0.04090,     0.01     0.0287424
"Line.MT101973_1"          0.06562,     0.01     0.0462063
"Line.MT101974_1"          0.00000,      0.0     -0.00174978
"Line.MT101975_1"          0.03999,     0.01     0.0280892
"Line.MT101978_1"          0.04521,     0.01     0.0317557
"Line.MT101980_1"          0.05600,     0.01     0.0394246
"Line.MT102034_1"          0.00000,      0.0     -0.00023579
"Line.MT102036_1"          0.00040,      0.0     -0.00632822
"Line.MT102037_1"          0.00038,      0.0     -0.00609993
"Line.MT102038_1"          0.00037,      0.0     -0.00587159
"Line.MT102039_1"          0.00026,      0.0     -0.00419424
"Line.MT102040_1"          0.00024,      0.0     -0.00388938
"Line.MT102041_1"          0.00029,      0.0     -0.00465224
"Line.MT102156_1"          0.00095,     0.00     -0.0170102
"Line.MT102168_1"          0.00087,      0.0     -0.0154647
"Line.MT102316_1"          0.00006,      0.0     -0.0136201
"Line.MT102362_1"          0.00004,      0.0     -0.0223383
"Line.MT102502_1"          0.00000,      0.0     -0.00346074
"Line.MT102513_1"          0.00000,      0.0     -0.00399766
"Line.MT102514_1"          0.00000,      0.0     -0.00423282
"Line.MT102515_1"          0.00000,      0.0     -0.00752501
"Line.MT102516_1"          0.00000,      0.0     -0.010582
"Line.MT102517_1"          0.00000,      0.0     -0.00360573
"Line.MT102518_1"          0.00000,      0.0     -0.00721146
"Line.MT102519_1"          0.00000,      0.0     -0.00736822
"Line.MT102520_1"          0.00000,      0.0     -0.00423281
"Line.MT102521_1"          0.00000,      0.0     -0.00752499
"Line.MT102755_1"          0.00000,      0.0     -0.0329263
"Line.MT102756_1"          0.00000,      0.0     -0.000226037
"Line.MT102938_1"          0.00000,      0.0     -0.00554667
"Line.MT102939_1"          0.00000,      0.0     -0.00707401
"Line.MT102940_1"          0.00000,      0.0     -0.0102894
"Line.MT103078_1"          0.00029,      0.0     -0.00465267
"Line.MT103079_1"          0.00021,      0.0     -0.0032796
"Line.MT103087_1"          0.00000,      0.0     -0.00744219
"Line.MT103141_1"          0.00000,      0.0     -0.0193805
"Line.MT103152_1"          0.00022,      0.0     -0.0262305
"Line.MT103153_1"          0.00012,      0.0     -0.0146508
"Line.MT103186_1"          0.00000,      0.0     -0.00137497
"Line.MT103308_1"          0.00000,      0.0     -0.0232014
"Line.MT103309_1"          0.00000,      0.0     -0.000874027
"Line.MT103310_1"          0.00000,      0.0     -0.000238368
"Line.MT103312_1"          0.00001,      0.0     -0.000713896
"Line.MT103313_1"          0.00010,      0.0     -0.00809087
"Line.MT103363_1"          0.00000,      0.0     -0.00443111
"Line.MT103389_1"          0.00000,      0.0     -0.0351831
"Line.MT103390_1"          0.00000,      0.0     -0.00179029
"Line.MT103641_1"          0.00148,     0.01     -0.0195824
"Line.MT103642_1"          0.00000,      0.0     -0.00611686
"Line.MT103646_1"          0.00628,     0.00     -0.000584207
"Line.MT103977_1"          0.00000,      0.0     -0.00351214
"Line.MT103978_1"          0.00000,      0.0     -0.00734355
"Line.MT103979_1"          0.00000,      0.0     -0.00925925
"Line.MT103980_1"          0.00000,      0.0     -0.00574711
"Line.MT103981_1"          0.00000,      0.0     -0.00614621
"Line.MT103982_1"          0.00000,      0.0     -0.00287355
"Line.MT103983_1"          0.00000,      0.0     -0.00542781
"Line.MT103984_1"          0.00000,      0.0     -0.00598659
"Line.MT103985_1"          0.00000,      0.0     -0.00550766
"Line.MT104_1"             0.00000,      0.0     -0.00716001
"Line.MT104164_1"          0.00000,      0.0     -0.00522926
"Line.MT104190_1"          0.71182,     0.06     0.865005
"Line.MT104191_1"          0.46797,     0.04     0.568721
"Line.MT104192_1"          1.09746,     0.09     1.33388
"Line.MT104193_1"          0.57677,     0.05     0.701092
"Line.MT104198_1"          0.00121,     0.01     -0.0148498
"Line.MT104353_2"          0.09886,     0.01     0.120118
"Line.MT104358_1"          0.00000,      0.0     -0.0150697
"Line.MT104360_1"          0.00000,      0.0     -0.00464282
"Line.MT104378_1"          0.00517,     0.01     -0.0136297
"Line.MT104379_1"          0.00384,     0.00     -0.0097089
"Line.MT10443_1"           0.00000,      0.0     -0.000239499
"Line.MT104544_1"          0.00000,      0.0     -0.00129412
"Line.MT104571_1"          0.00000,      0.0     -0.00442044
"Line.MT104600_1"          0.00001,      0.0     -0.0132236
"Line.MT104602_1"          0.00001,      0.0     -0.00332226
"Line.MT104624_1"          0.04337,     0.01     0.0250975
"Line.MT104675_1"          0.00001,      0.0     -0.0162975
"Line.MT104726_1"          0.00000,      0.0     -0.000687494
"Line.MT104782_1"          0.00000,      0.0     -0.000710047
"Line.MT104965_1"          0.00015,      0.0     -0.0127106
"Line.MT104997_1"          0.00001,      0.0     -0.000941637
"Line.MT105059_1"          0.00100,     0.00     -0.0131659
"Line.MT105060_1"          0.00000,      0.0     -0.0050962
"Line.MT105061_1"          0.00196,     0.00     -0.02093
"Line.MT105638_1"          0.00000,      0.0     -0.00618038
"Line.MT105688_1"          0.00003,      0.0     -0.0144098
"Line.MT105865_1"          0.00000,      0.0     -0.00375948
"Line.MT105866_1"          0.00000,      0.0     -0.00607916
"Line.MT106037_1"          0.00001,      0.0     -0.00433836
"Line.MT106066_1"          0.00003,      0.0     -0.0103072
"Line.MT106084_1"          0.00004,      0.0     -0.0822384
"Line.MT106211_1"          0.00000,      0.0     -0.00473347
"Line.MT106252_1"          0.00002,      0.0     -0.00846124
"Line.MT106259_1"          0.00000,      0.0     -0.000472391
"Line.MT106261_1"          0.00000,      0.0     -0.000944864
"Line.MT106262_1"          0.00000,      0.0     -0.0817314
"Line.MT106317_1"          0.00000,      0.0     -0.0048223
"Line.MT106343_1"          0.00000,      0.0     -0.00414943
"Line.MT106352_1"          0.00000,      0.0     -0.00391456
"Line.MT106353_1"          0.00000,      0.0     -0.00728108
"Line.MT106354_1"          0.00000,      0.0     -0.00602842
"Line.MT106355_1"          0.00000,      0.0     -0.0238005
"Line.MT106356_1"          0.00000,      0.0     -0.0323343
"Line.MT106455_1"          0.00000,      0.0     -0.0039258
"Line.MT106568_1"          0.00000,      0.0     -0.00517816
"Line.MT106569_1"          0.00000,      0.0     -0.00900203
"Line.MT106571_1"          0.00000,      0.0     -0.0124276
"Line.MT106842_1"          0.00000,      0.0     -0.00283718
"Line.MT106860_1"          0.00000,      0.0     -0.0104106
"Line.MT106862_1"          0.00000,      0.0     -0.00504756
"Line.MT106863_1"          0.00000,      0.0     -0.00670378
"Line.MT106864_1"          0.00000,      0.0     -0.00441661
"Line.MT107341_1"          0.00000,      0.0     -0.0102512
"Line.MT107348_1"          0.00000,      0.0     -0.00619807
"Line.MT107349_1"          0.00000,      0.0     -0.0344337
"Line.MT107365_1"          0.00001,      0.0     -0.00928121
"Line.MT107543_1"          0.01143,     0.01     -0.0104134
"Line.MT107652_1"          0.00000,      0.0     -0.0180852
"Line.MT107811_1"          0.00000,      0.0     -0.0279943
"Line.MT107812_1"          0.00000,      0.0     -0.0155524
"Line.MT107892_1"          0.00000,      0.0     -0.00171672
"Line.MT107893_1"          0.00000,      0.0     -0.00624262
"Line.MT107894_1"          0.00000,      0.0     -0.00819344
"Line.MT107895_1"          0.00000,      0.0     -0.0114708
"Line.MT107896_1"          0.00000,      0.0     -0.00897377
"Line.MT107897_1"          0.00000,      0.0     -0.00811541
"Line.MT107898_1"          0.00000,      0.0     -0.0176354
"Line.MT107912_1"          0.00000,      0.0     -0.00891524
"Line.MT107914_1"          0.00000,      0.0     -0.000722854
"Line.MT107916_1"          0.00000,      0.0     -0.000241159
"Line.MT107982_1"          0.00659,     0.00     0.0080072
"Line.MT108298_1"          0.00003,      0.0     -0.011084
"Line.MT108300_1"          0.00000,      0.0     -0.000237519
"Line.MT10831_1"           0.00078,      0.0     -0.013696
"Line.MT108438_1"          0.00000,      0.0     -0.00754102
"Line.MT108439_1"          0.00000,      0.0     -0.0044925
"Line.MT108440_1"          0.00000,      0.0     -0.0037705
"Line.MT108441_1"          0.00000,      0.0     -0.0249494
"Line.MT108442_1"          0.00000,      0.0     -0.00561558
"Line.MT108443_1"          0.00000,      0.0     -0.0032089
"Line.MT108555_1"          0.00000,      0.0     -0.00923059
"Line.MT109191_1"          0.00000,      0.0     -0.0221777
"Line.MT109192_1"          0.00000,      0.0     -0.00227076
"Line.MT109193_1"          0.00000,      0.0     -0.000227075
"Line.MT110013_1"          0.00000,      0.0     -0.0061908
"Line.MT110016_1"          0.00000,      0.0     -0.00359985
"Line.MT110228_1"          0.00002,      0.0     -0.00698033
"Line.MT110336_1"          0.00000,      0.0     -0.00609362
"Line.MT110337_1"          0.00000,      0.0     -0.00460927
"Line.MT110541_1"          0.00000,      0.0     -0.0122881
"Line.MT110542_1"          0.00000,      0.0     -0.00462696
"Line.MT110639_1"          0.00000,      0.0     -0.00533742
"Line.MT110759_1"          0.00000,      0.0     -0.00151723
"Line.MT110774_1"          0.00002,      0.0     -0.00992666
"Line.MT110795_1"          0.00003,      0.0     -0.0160716
"Line.MT110824_3"          0.00001,      0.0     -0.0200247
...
"Line.RAMAL_17717"         0.00006,      0.0     4.76081E-007
"Line.RAMAL_17732"         0.00026,      0.0     8.17575E-006
"Line.RAMAL_17801"         0.00000,      0.0     -3.22537E-006
"Line.RAMAL_17805"         0.00000,      0.0     -3.53878E-006
"Line.RAMAL_17808"         0.00000,      0.0     -2.04115E-006
"Line.RAMAL_17810"         0.03573,     0.34     0.00122859
"Line.RAMAL_17814"         0.00001,      0.0     -3.0842E-006
"Line.RAMAL_17817"         0.00004,      0.0     -6.47905E-007
"Line.RAMAL_17818"         0.00002,      0.0     -2.66304E-006
"Line.RAMAL_17820"         0.00000,      0.0     -2.69507E-006
"Line.RAMAL_17822"         0.00004,      0.0     3.61217E-007
"Line.RAMAL_17823"         0.00005,      0.0     -5.6686E-007
"Line.RAMAL_17824"         0.00021,      0.0     3.87736E-006
"Line.RAMAL_17825"         0.00038,      0.0     1.10122E-005
"Line.RAMAL_17827"         0.00000,      0.0     -3.17217E-006
"Line.RAMAL_17831"         0.00002,      0.0     -2.07288E-006
"Line.RAMAL_17833"         0.00009,      0.0     1.39056E-006
"Line.RAMAL_17835"         0.00000,      0.0     -1.07909E-006
"Line.RAMAL_17837"         0.00013,      0.0     2.55759E-006
"Line.RAMAL_17839"         0.00000,      0.0     -1.03395E-006
"Line.RAMAL_17840"         0.00004,      0.0     -3.24997E-007
"Line.RAMAL_17844"         0.00000,      0.0     -1.95443E-006
"Line.RAMAL_17852"         0.00000,      0.0     -2.05221E-006
"Line.RAMAL_17855"         0.00000,      0.0     -1.08576E-006
"Line.RAMAL_17857"         0.00000,      0.0     -8.78964E-007
"Line.RAMAL_17859"         0.00001,      0.0     -1.19623E-006
"Line.RAMAL_17860"         0.00012,      0.0     1.91436E-006
"Line.RAMAL_17867"         0.00000,      0.0     -1.77871E-006
"Line.RAMAL_17871"         0.00005,      0.0     -1.47737E-006
"Line.RAMAL_17878"         0.00000,      0.0     -1.06173E-006
"Line.RAMAL_17879"         0.00000,      0.0     -9.72475E-007
"Line.RAMAL_17882"         0.00000,      0.0     -9.01188E-007
"Line.RAMAL_17885"         0.00014,      0.0     3.01649E-006
"Line.RAMAL_17886"         0.00002,      0.0     -1.61911E-006
"Line.RAMAL_17887"         0.00010,      0.0     2.28792E-006
"Line.RAMAL_17888"         0.00001,      0.0     -5.51815E-007
"Line.RAMAL_17889"         0.00007,      0.0     9.81167E-007
"Line.RAMAL_17891"         0.00000,      0.0     -2.39614E-006
"Line.RAMAL_17894"         0.00000,      0.0     -1.07564E-006
"Line.RAMAL_17895"         0.00000,      0.0     -1.94621E-006
"Line.RAMAL_17897"         0.00006,      0.0     -2.09007E-008
"Line.RAMAL_17898"         0.00000,      0.0     -2.13341E-006
"Line.RAMAL_17900"         0.00000,      0.0     -1.08623E-006
"Line.RAMAL_17901"         0.00000,      0.0     -1.08313E-006
"Line.RAMAL_17902"         0.00000,      0.0     -1.0867E-006
"Line.RAMAL_17904"         0.00000,      0.0     -3.21165E-006
"Line.RAMAL_17907"         0.00000,      0.0     -3.22078E-006
"Line.RAMAL_17909"         0.00007,      0.0     6.51289E-007
"Line.RAMAL_17910"         0.00000,      0.0     -1.06798E-006
"Line.RAMAL_17912"         0.00000,      0.0     -1.06816E-006
"Line.RAMAL_17913"         0.00000,      0.0     -3.22033E-006
"Line.RAMAL_17922"         0.00000,      0.0     -3.13135E-006
"Line.RAMAL_17926"         0.00000,      0.0     -1.08492E-006
"Line.RAMAL_17929"         0.00000,      0.0     -3.13439E-006
"Line.RAMAL_17930"         0.00000,      0.0     -3.2427E-006
"Line.RAMAL_17932"         0.00216,     0.10     7.24489E-005
"Line.RAMAL_17933"         0.00002,      0.0     -1.0463E-006
"Line.RAMAL_17934"         0.00000,      0.0     -2.89896E-006
"Line.RAMAL_17937"         0.00000,      0.0     -3.23392E-006
"Line.RAMAL_17940"         0.00001,      0.0     -2.4496E-006
"Line.RAMAL_17942"         0.00000,      0.0     -1.08692E-006
"Line.RAMAL_17944"         0.00000,      0.0     -2.27617E-006
"Line.RAMAL_17946"         0.00000,      0.0     -2.13229E-006
"Line.RAMAL_17948"         0.00000,      0.0     -9.56653E-007
"Line.RAMAL_17949"         0.00000,      0.0     -2.12905E-006
"Line.RAMAL_17952"         0.00007,      0.0     1.17342E-006
"Line.RAMAL_17955"         0.00000,      0.0     -3.04809E-006
"Line.RAMAL_17956"         0.00081,      0.0     2.59393E-005
"Line.RAMAL_17957"         0.03283,     0.36     0.00112941
"Line.RAMAL_17959"         0.00001,      0.0     -1.72796E-006
"Line.RAMAL_17960"         0.00006,      0.0     8.35348E-008
"Line.RAMAL_17961"         0.00000,      0.0     -2.64395E-006
"Line.RAMAL_17964"         0.00037,      0.0     1.05191E-005
"Line.RAMAL_17969"         0.00043,      0.0     1.15989E-005
"Line.RAMAL_17970"         0.00001,      0.0     -7.86622E-007
"Line.RAMAL_17983"         0.00000,      0.0     -2.9191E-006
"Line.RAMAL_17988"         0.00020,      0.0     4.79971E-006
"Line.RAMAL_17989"         0.00022,      0.0     5.47072E-006
"Line.RAMAL_17991"         0.00000,      0.0     -1.08605E-006
"Line.RAMAL_17992"         0.00001,      0.0     -1.685E-006
"Line.RAMAL_17995"         0.00000,      0.0     -1.04103E-006
"Line.RAMAL_17999"         0.00036,      0.0     1.03347E-005
"Line.RAMAL_18078"         0.00015,      0.0     4.4331E-006
"Line.RAMAL_18083"         0.00015,      0.0     3.2921E-006
"Line.RAMAL_18094"         0.00000,      0.0     -1.01627E-006
"Line.RAMAL_18100"         0.00000,      0.0     -1.06832E-006
"Line.RAMAL_18107"         0.00002,      0.0     -1.40687E-006
"Line.RAMAL_18110"         0.00007,      0.0     -9.50887E-007
"Line.RAMAL_18111"         0.00000,      0.0     -1.06328E-006
"Line.RAMAL_18113"         0.00001,      0.0     -2.55772E-006
"Line.RAMAL_18118"         0.00012,      0.0     1.87565E-006
"Line.RAMAL_18119"         0.04045,     0.37     0.00139155
"Line.RAMAL_18121"         0.00001,      0.0     -2.88789E-006
"Line.RAMAL_18125"         0.00009,      0.0     1.167E-006
"Line.RAMAL_18126"         0.00000,      0.0     -2.17725E-006
"Line.RAMAL_18127"         0.00006,      0.0     -2.12552E-007
"Line.RAMAL_18129"         0.00000,      0.0     -2.17941E-006
"Line.RAMAL_18131"         0.00021,      0.0     5.14184E-006
"Line.RAMAL_18132"         0.00005,      0.0     -2.53882E-007
"Line.RAMAL_18137"         0.00013,      0.0     1.88422E-007
"Line.RAMAL_18138"         0.00000,      0.0     -2.14856E-006
"Line.RAMAL_18140"         0.00004,      0.0     -4.697E-007
"Line.RAMAL_18145"         0.00000,      0.0     -2.11469E-006
"Line.RAMAL_18146"         0.00000,      0.0     -2.12187E-006
"Line.RAMAL_18147"         0.00077,      0.0     2.32491E-005
"Line.RAMAL_18148"         0.00001,      0.0     -2.96552E-006
"Line.RAMAL_18150"         0.00003,      0.0     -2.29841E-006
"Line.RAMAL_18151"         0.00000,      0.0     -3.24977E-006
"Line.RAMAL_18153"         0.00037,      0.0     1.04714E-005
"Line.RAMAL_18154"         0.00011,      0.0     9.04954E-007
"Line.RAMAL_18157"         0.00000,      0.0     -2.61749E-006
"Line.RAMAL_18159"         0.00048,      0.0     1.3841E-005
"Line.RAMAL_18160"         0.00002,      0.0     -1.28988E-006
"Line.RAMAL_18162"         0.00008,      0.0     7.10034E-007
"Line.RAMAL_18163"         0.00009,      0.0     1.28972E-006
"Line.RAMAL_18164"         0.00000,      0.0     -3.24727E-006
"Line.RAMAL_18171"         0.00025,      0.0     5.43874E-006
"Line.RAMAL_18172"         0.00000,      0.0     -1.8414E-006
"Line.RAMAL_18173"         0.00007,      0.0     1.48603E-007
"Line.RAMAL_18174"         0.00000,      0.0     -2.1749E-006
"Line.RAMAL_18177"         0.00000,      0.0     -2.1437E-006
"Line.RAMAL_18180"         0.00000,      0.0     -1.77818E-006
"Line.RAMAL_18182"         0.00001,      0.0     -2.12405E-006
"Line.RAMAL_18183"         0.00002,      0.0     -1.4284E-006
"Line.RAMAL_18184"         0.00002,      0.0     -1.37537E-006
"Line.RAMAL_18185"         0.00000,      0.0     -2.09577E-006
"Line.RAMAL_18189"         0.00041,      0.0     1.23807E-005
"Line.RAMAL_18191"         0.00034,      0.0     9.90961E-006
"Line.RAMAL_18192"         0.00001,      0.0     -5.17303E-006
"Line.RAMAL_18194"         0.00001,      0.0     -1.51005E-006
"Line.RAMAL_18195"         0.00006,      0.0     9.25259E-008
"Line.RAMAL_18199"         0.00000,      0.0     -2.14131E-006
"Line.RAMAL_18302"         0.00000,      0.0     -1.07619E-006
"Line.RAMAL_18303"         0.00000,      0.0     -9.6648E-007
"Line.RAMAL_18304"         0.00000,      0.0     -1.0812E-006
"Line.RAMAL_18307"         0.00000,      0.0     -1.06997E-006
"Line.RAMAL_18308"         0.00000,      0.0     -1.06915E-006
"Line.RAMAL_18310"         0.00000,      0.0     -2.94331E-006
"Line.RAMAL_18311"         0.00012,      0.0     2.31908E-006
"Line.RAMAL_18312"         0.00000,      0.0     -2.05497E-006
"Line.RAMAL_18314"         0.00002,      0.0     -2.32354E-006
"Line.RAMAL_18317"         0.00001,      0.0     -1.67436E-006
"Line.RAMAL_18319"         0.00004,      0.0     -2.81562E-006
"Line.RAMAL_18320"         0.00000,      0.0     -1.81573E-006
"Line.RAMAL_18323"         0.00005,      0.0     1.65041E-007
"Line.RAMAL_18326"         0.00012,      0.0     3.20694E-006
"Line.RAMAL_18327"         0.00080,      0.0     2.428E-005
"Line.RAMAL_18328"         0.00000,      0.0     -2.92358E-006
"Line.RAMAL_18329"         0.00000,      0.0     -1.07009E-006
"Line.RAMAL_18336"         0.00002,      0.0     5.66229E-007
"Line.RAMAL_18337"         0.00000,      0.0     -1.08411E-006
"Line.RAMAL_18339"         0.00000,      0.0     -2.96256E-006
"Line.RAMAL_18340"         0.00006,      0.0     1.94879E-007
"Line.RAMAL_18347"         0.00000,      0.0     -8.76609E-007
"Line.RAMAL_18350"         0.00012,      0.0     2.98001E-006
"Line.RAMAL_18352"         0.00000,      0.0     -2.95032E-006
"Line.RAMAL_18353"         0.00011,      0.0     1.80916E-006
"Line.RAMAL_18354"         0.00001,      0.0     -5.73456E-007
"Line.RAMAL_18358"         0.00000,      0.0     -3.25247E-006
"Line.RAMAL_18360"         0.00010,      0.0     6.27326E-007
"Line.RAMAL_18361"         0.00004,      0.0     -1.53034E-006
"Line.RAMAL_18363"         0.00017,      0.0     4.12117E-006
"Line.RAMAL_18364"         0.00000,      0.0     -1.06506E-006
"Line.RAMAL_18372"         0.00000,      0.0     -1.08843E-006
"Line.RAMAL_18374"         0.00000,      0.0     -2.29321E-006
"Line.RAMAL_18375"         0.00004,      0.0     -6.69067E-007
"Line.RAMAL_18376"         0.00006,      0.0     1.34525E-006
"Line.RAMAL_18380"         0.00000,      0.0     -3.21998E-006
"Line.RAMAL_18381"         0.00001,      0.0     -1.64096E-006
"Line.RAMAL_18382"         0.00000,      0.0     -1.05204E-006
"Line.RAMAL_18385"         0.00002,      0.0     2.45545E-007
"Line.RAMAL_18387"         0.00008,      0.0     1.67795E-006
"Line.RAMAL_18389"         0.00005,      0.0     -9.52319E-008
"Line.RAMAL_18390"         0.00000,      0.0     -3.22285E-006
"Line.RAMAL_18391"         0.00005,      0.0     8.03675E-007
"Line.RAMAL_18393"         0.00000,      0.0     -1.06371E-006
"Line.RAMAL_18394"         0.00000,      0.0     -3.19352E-006
"Line.RAMAL_18396"         0.00002,      0.0     8.75332E-008
"Line.RAMAL_18397"         0.00000,      0.0     -1.07453E-006
"Line.RAMAL_18398"         0.00000,      0.0     -1.09549E-006
"Line.RAMAL_18400"         0.00000,      0.0     -2.51409E-006
"Line.RAMAL_18401"         0.00000,      0.0     -2.67967E-006
"Line.RAMAL_18405"         0.00006,      0.0     1.10959E-006
"Line.RAMAL_18406"         0.00010,      0.0     2.54727E-006
"Line.RAMAL_18407"         0.00000,      0.0     -2.94037E-006
"Line.RAMAL_18408"         0.00001,      0.0     -5.72027E-007
"Line.RAMAL_18409"         0.00005,      0.0     6.56409E-007
"Line.RAMAL_18410"         0.00000,      0.0     -1.07563E-006
"Line.RAMAL_18411"         0.00000,      0.0     -8.99112E-007
"Line.RAMAL_18412"         0.00018,      0.0     3.42677E-006
"Line.RAMAL_18413"         0.00000,      0.0     -1.0822E-006
"Line.RAMAL_18414"         0.00017,      0.0     4.83482E-006
"Line.RAMAL_18416"         0.00000,      0.0     -3.20602E-006
"Line.RAMAL_18418"         0.00000,      0.0     -8.93185E-007
"Line.RAMAL_18419"         0.00000,      0.0     -1.06497E-006
"Line.RAMAL_18421"         0.00000,      0.0     -9.68291E-007
"Line.RAMAL_18423"         0.00013,      0.0     1.86478E-006
"Line.RAMAL_18425"         0.00003,      0.0     -1.97641E-006
"Line.RAMAL_18427"         0.00000,      0.0     -2.26299E-006
"Line.RAMAL_18429"         0.00150,     0.11     4.90665E-005
...
"Transformer.RT39_627"   140.19766,     5.93     183.983
"Transformer.RT40_1296"  287.73381,     5.97     377.653
"Transformer.RT40_2966"  119.15717,     5.73     156.129
"Transformer.IT20_2411"    0.02102,    50.28     4.02078E-005
"Transformer.IT20_4805"    0.00970,     7.16     3.15223E-005
"Transformer.IT32_10126"   0.05145,   100.00     5.08567E-005
"Transformer.IT32_10236"   0.02035,   100.00     2.01203E-005
"Transformer.IT32_10514"   0.13142,   100.00     2.63885E-005
"Transformer.IT32_1086"    0.03736,     4.01     0.00119673
"Transformer.IT32_1101"    0.02273,     2.10     0.00931232
"Transformer.IT32_1124"    0.19091,     6.55     0.00124628
"Transformer.IT32_1125"    0.05064,     5.23     0.00419695
"Transformer.IT32_1126"    0.06145,     2.72     0.036698
"Transformer.IT32_1127"    0.02247,     6.73     0.0011101
"Transformer.IT32_1128"    0.03336,     3.31     0.00715473
"Transformer.IT32_1129"    0.03754,     3.01     0.00966371
"Transformer.IT32_1130"    0.03078,   100.00     3.04232E-005
"Transformer.IT32_1131"    0.03401,     4.37     0.00135446
"Transformer.IT32_1132"    0.03059,     5.39     0.00135317
"Transformer.IT32_1137"    0.02202,     1.03     0.0503427
"Transformer.IT32_1151"    0.02223,     5.27     0.000282384
"Transformer.IT32_1152"    0.01222,    87.53     1.19957E-005
"Transformer.IT32_1156"    0.06192,     5.78     0.00413608
"Transformer.IT32_1430"    0.06180,     2.97     0.0164564
"Transformer.IT32_1435"    0.22815,     3.09     0.00652658
"Transformer.IT32_1478"    0.01880,     6.00     0.00114748
"Transformer.IT32_1663"    0.05732,     9.69     0.000340237
"Transformer.IT32_1664"    0.02299,     4.77     0.000711853
"Transformer.IT32_1715"    0.03368,     8.21     0.000214895
"Transformer.IT32_1716"    0.19271,     6.88     0.00118892
"Transformer.IT32_1744"    0.02039,    62.96     2.7322E-005
"Transformer.IT32_1757"    0.03446,     2.98     0.00370774
"Transformer.IT32_1760"    0.01894,     4.54     0.00206742
"Transformer.IT32_1887"    0.03121,     6.33     0.00318938
"Transformer.IT32_1903"    0.02244,     2.52     0.00852475
"Transformer.IT32_1932"    0.00945,     3.00     0.00244978
"Transformer.IT32_2029"    0.03120,     4.81     0.00111229
"Transformer.IT32_2113"    0.05574,     6.58     0.00288229
"Transformer.IT32_2267"    0.20758,    43.65     6.38744E-005
"Transformer.IT32_2364"    0.03123,     5.25     0.00256128
"Transformer.IT32_2781"    0.01038,   100.00     1.02629E-005
"Transformer.IT32_2802"    0.03135,    15.69     0.000262963
"Transformer.IT32_2839"    0.03389,     3.77     0.0044599
"Transformer.IT32_2909"    0.01543,     4.82     0.00150582
"Transformer.IT32_2955"    0.16009,    13.03     0.000395967
"Transformer.IT32_3043"    0.06114,     5.21     0.00520362
"Transformer.IT32_3307"    0.19292,     2.62     0.0098171
"Transformer.IT32_3316"    0.03049,    16.13     0.000240708
"Transformer.IT32_3367"    0.17361,     2.57     0.00888835
"Transformer.IT32_3634"    0.02264,   100.00     2.19229E-005
"Transformer.IT32_3642"    0.04642,    75.53     4.90243E-005
"Transformer.IT32_3644"    0.14551,    11.05     0.000353085
"Transformer.IT32_3760"    0.02101,     1.74     0.0594266
"Transformer.IT32_3858"    0.03426,     4.81     0.00531566
"Transformer.IT32_3889"    0.02224,     1.25     0.0366957
"Transformer.IT32_4040"    0.02276,     2.30     0.0104432
"Transformer.IT32_4074"    0.05059,     7.19     0.00214439
"Transformer.IT32_4241"    0.08287,    12.53     0.000175946
"Transformer.IT32_4491"    0.02278,     7.47     0.00302779
"Transformer.IT32_4580"    0.01824,    20.45     0.00025382
"Transformer.IT32_4636"    0.00949,     8.78     2.35536E-005
"Transformer.IT32_4817"    0.00625,   100.00     6.17812E-006
"Transformer.IT32_4840"    0.03040,     4.74     0.00306457
"Transformer.IT32_4877"    0.01438,   100.00     1.45197E-005
"Transformer.IT32_4890"    0.08512,     6.83     0.000599364
"Transformer.IT32_5001"    0.01861,    33.41     2.04042E-005
"Transformer.IT32_5002"    0.01688,     3.24     0.00379751
"Transformer.IT32_5009"    0.19009,     9.83     0.000504084
"Transformer.IT32_529"     0.14919,     5.59     0.00140558
"Transformer.IT32_530"     0.03382,    17.45     0.000230007
"Transformer.IT32_5430"    0.05621,     0.97     0.159465
"Transformer.IT32_5516"    0.05310,     1.33     0.0757966
"Transformer.IT32_552"     0.05517,    14.10     8.46514E-005
"Transformer.IT32_5523"    0.20834,    39.48     6.89739E-005
"Transformer.IT32_5662"    0.14464,    16.28     0.000170055
"Transformer.IT32_5665"    0.01874,    10.23     0.00122458
"Transformer.IT32_5676"    0.22352,     3.30     0.00544661
"Transformer.IT32_5680"    0.05522,    10.78     0.000107957
"Transformer.IT32_5744"    0.03440,     1.86     0.024024
"Transformer.IT32_5894"    0.01926,     6.90     0.000883466
"Transformer.IT32_5895"    0.01899,    64.33     2.12615E-005
"Transformer.IT32_5899"    0.17262,    54.81     4.72678E-005
"Transformer.IT32_6021"    0.01871,     4.32     0.00226359
"Transformer.IT32_6351"    0.14461,    39.12     6.10825E-005
"Transformer.IT32_6858"    0.01865,     6.57     0.000943534
"Transformer.IT32_7028"    0.20570,    26.41     0.000106063
"Transformer.IT32_7204"    0.05200,    10.36     0.00103076
"Transformer.IT32_7384"    0.02039,    65.16     2.61909E-005
"Transformer.IT32_7413"    0.05171,     9.90     0.00191152
"Transformer.IT32_7419"    0.05644,     2.09     0.0314647
"Transformer.IT32_7485"    0.15069,     5.49     0.00179216
"Transformer.IT32_7533"    0.05574,     6.67     0.00256147
"Transformer.IT32_7534"    0.31266,    62.98     8.07171E-005
"Transformer.IT32_7739"    0.17340,    66.42     4.4989E-005
"Transformer.IT32_7860"    0.28892,     1.84     0.0316864
"Transformer.IT32_932"     0.03069,    10.55     0.000164213
"Transformer.IT32_961"     0.30833,     1.81     0.0369027
"Transformer.IT39_10010"   0.05878,    14.10     0.000622825
"Transformer.IT39_10012"   0.05063,     4.47     0.00550308
"Transformer.IT39_10042"   0.02352,    22.57     2.77456E-005
"Transformer.IT39_1008"    0.35307,     3.08     0.0094937
"Transformer.IT39_10138"   0.32600,    49.19     9.57416E-005
"Transformer.IT39_10219"   0.16703,    18.75     0.000294768
"Transformer.IT39_10220"   0.02315,   100.00     2.24214E-005
"Transformer.IT39_10221"   0.05877,     4.20     0.00779239
"Transformer.IT39_10222"   0.02350,     4.35     0.00516038
"Transformer.IT39_10346"   0.08728,     5.80     0.00591481
"Transformer.IT39_1035"    0.03331,     5.65     0.00115056
"Transformer.IT39_1036"    0.05123,     6.19     0.00297177
"Transformer.IT39_10440"   0.01939,   100.00     1.95869E-005
"Transformer.IT39_1055"    0.02830,     2.14     0.017797
"Transformer.IT39_1056"    0.04707,     2.30     0.0420085
"Transformer.IT39_1123"    0.05100,     5.95     0.00423314
"Transformer.IT39_1133"    0.03352,     2.62     0.00797984
"Transformer.IT39_1134"    0.05564,     3.88     0.00863192
"Transformer.IT39_1135"    0.02443,     6.31     0.00135803
"Transformer.IT39_1142"    0.02607,     3.69     0.00172719
"Transformer.IT39_1143"    0.03512,     3.35     0.00422189
"Transformer.IT39_1144"    0.03490,     5.11     0.0030785
"Transformer.IT39_1145"    0.02346,     2.68     0.00789997
"Transformer.IT39_1147"    0.04204,     1.02     0.106529
"Transformer.IT39_1149"    0.18188,     6.84     0.000987158
"Transformer.IT39_1183"    0.02934,     3.86     0.00665232
"Transformer.IT39_1221"    0.03499,     4.99     0.00324292
"Transformer.IT39_1341"    0.04838,     5.14     0.00254082
"Transformer.IT39_1344"    0.04876,     3.07     0.00947795
"Transformer.IT39_1345"    0.05911,     3.20     0.00948764
"Transformer.IT39_1346"    0.02345,    28.70     6.23847E-005
"Transformer.IT39_1347"    0.02344,   100.00     2.26986E-005
"Transformer.IT39_1348"    0.02377,     2.36     0.0103825
"Transformer.IT39_1429"    0.05868,     4.78     0.00588695
"Transformer.IT39_1463"    0.01123,     2.49     0.0061298
"Transformer.IT39_1686"    0.01487,     2.89     0.00415844
"Transformer.IT39_1692"    0.05805,     5.65     0.00299392
"Transformer.IT39_1770"    0.02347,     9.25     0.00059988
"Transformer.IT39_1908"    0.02325,     7.71     0.000868477
"Transformer.IT39_1996"    0.02319,     4.59     0.000810751
"Transformer.IT39_2004"    0.02336,     8.79     0.000732962
"Transformer.IT39_2005"    0.05860,     4.56     0.00652162
"Transformer.IT39_2006"    0.16385,    24.23     0.000101456
"Transformer.IT39_2052"    0.01954,   100.00     1.97338E-005
"Transformer.IT39_2053"    0.01184,     2.78     0.00328637
"Transformer.IT39_2054"    0.02343,   100.00     2.26867E-005
"Transformer.IT39_2055"    0.02350,     5.10     0.000573412
"Transformer.IT39_2056"    0.05340,   100.00     5.27824E-005
"Transformer.IT39_2087"    0.09692,     7.84     0.000525703
"Transformer.IT39_2134"    0.19636,    23.33     0.000126977
"Transformer.IT39_2214"    0.01188,     2.33     0.00534738
"Transformer.IT39_2215"    0.17786,     4.01     0.00335403
"Transformer.IT39_2216"    0.04880,     6.81     0.00157246
"Transformer.IT39_2217"    0.01970,   100.00     1.98951E-005
"Transformer.IT39_2223"    0.02943,     2.42     0.0118476
"Transformer.IT39_2224"    0.04649,    11.80     0.00071164
"Transformer.IT39_2225"    0.05359,     2.58     0.0191967
"Transformer.IT39_2226"    0.00998,     1.99     0.000312762
"Transformer.IT39_2227"    0.05820,     6.20     0.000995789
"Transformer.IT39_2269"    0.21481,    15.88     0.000241714
"Transformer.IT39_2317"    0.03843,    14.17     0.000393529
"Transformer.IT39_2347"    0.03365,    66.19     3.58639E-005
"Transformer.IT39_2351"    0.58174,     1.85     0.11228
"Transformer.IT39_2419"    0.31846,     3.20     0.00736523
"Transformer.IT39_2465"    0.01299,     2.32     0.00401063
"Transformer.IT39_2466"    0.01169,     3.17     0.00276988
"Transformer.IT39_2467"    0.19667,    11.74     0.000474642
"Transformer.IT39_2470"    0.00939,     2.64     0.000967648
"Transformer.IT39_2471"    0.02323,   100.00     2.24968E-005
"Transformer.IT39_2472"    0.00999,     1.88     0.00681833
"Transformer.IT39_2473"    0.00981,    18.16     6.0894E-005
"Transformer.IT39_2491"    0.00709,     1.95     0.00459696
"Transformer.IT39_2645"    0.15139,     3.59     0.00375867
"Transformer.IT39_2681"    0.20395,     2.82     0.00733692
"Transformer.IT39_2682"    0.44800,     1.75     0.0528022
"Transformer.IT39_2683"    0.45831,     2.68     0.0139105
"Transformer.IT39_2760"    0.01272,   100.00     1.20717E-005
"Transformer.IT39_2761"    0.01296,     2.15     0.0173479
"Transformer.IT39_2762"    0.02543,   100.00     2.41433E-005
"Transformer.IT39_2763"    0.03201,     6.16     0.003256
"Transformer.IT39_2764"    0.01752,    25.69     0.000146906
"Transformer.IT39_2765"    0.01159,   100.00     1.12203E-005
"Transformer.IT39_2767"    0.33728,     1.98     0.0232276
"Transformer.IT39_2777"    0.15064,    12.66     0.000280328
"Transformer.IT39_2778"    0.02323,     4.28     0.00025136
"Transformer.IT39_2786"    0.01908,   100.00     1.81078E-005
"Transformer.IT39_2796"    0.01287,    19.50     1.58612E-005
"Transformer.IT39_2951"    0.02337,    25.83     7.48222E-005
"Transformer.IT39_2952"    0.01750,     4.62     0.00189943
"Transformer.IT39_2953"    0.03189,     1.56     0.0325263
"Transformer.IT39_2986"    0.09448,    19.71     8.82504E-005
"Transformer.IT39_3041"    0.13821,    56.14     3.51605E-005
"Transformer.IT39_3089"    0.17155,     5.55     0.00180826
"Transformer.IT39_3140"    0.06080,    98.07     5.77416E-005
"Transformer.IT39_3232"    0.04613,    13.10     0.000552609
"Transformer.IT39_3258"    0.02465,     4.96     0.00226387
"Transformer.IT39_3260"    0.03535,     3.73     0.00598146
"Transformer.IT39_3270"    0.01176,   100.00     1.13894E-005
"Transformer.IT39_3281"    0.02233,     4.99     0.00148484
"Transformer.IT39_3283"    0.02353,     9.68     0.000546778
"Transformer.IT39_3337"    0.35217,     1.76     0.0530142
"Transformer.IT39_3512"    0.01975,     2.13     0.023691
"Transformer.IT39_3569"    0.02327,     6.39     0.00128964
...

LINE LOSSES=                        54.6 kW
TRANSFORMER LOSSES=                594.0 kW

TOTAL LOSSES=                      648.6 kW

TOTAL LOAD POWER =                 885.3 kW
Percent Losses for Circuit =     73.26 %
